data_ESPm\P21212\-\1
_audit_creation_date              2010-08-19
_audit_creation_method            'Materials Studio'
_symmetry_space_group_name_H-M    'P21212'
_symmetry_Int_Tables_number       18
_symmetry_cell_setting            orthorhombic
loop_
_symmetry_equiv_pos_as_xyz
  x,y,z
  -x,-y,z
  -x+1/2,y+1/2,-z
  x+1/2,-y+1/2,-z
_cell_length_a                    11.0940
_cell_length_b                    17.1959
_cell_length_c                    4.1206
_cell_angle_alpha                 90.0000
_cell_angle_beta                  90.0000
_cell_angle_gamma                 90.0000
loop_
_atom_site_label
_atom_site_type_symbol
_atom_site_fract_x
_atom_site_fract_y
_atom_site_fract_z
_atom_site_U_iso_or_equiv
_atom_site_adp_type
_atom_site_occupancy
O2     O     0.70957   0.22014   0.45203   0.00000  Uiso   1.00
H3     H     0.65649   0.18252   0.56261   0.00000  Uiso   1.00
O3     O     0.45760   0.23787   0.41057   0.00000  Uiso   1.00
H4     H     0.37101   0.25073   0.42011   0.00000  Uiso   1.00
O4     O     0.36891   0.36178   0.02939   0.00000  Uiso   1.00
H5     H     0.34031   0.40361  -0.11184   0.00000  Uiso   1.00
O5     O     0.73596   0.51107  -0.38021   0.00000  Uiso   1.00
H6     H     0.80094   0.54048  -0.48357   0.00000  Uiso   1.00
O6     O     0.88560   0.44019  -0.22431   0.00000  Uiso   1.00
C1     C     0.69391   0.39256  -0.07140   0.00000  Uiso   1.00
C2     C     0.73742   0.32922   0.11523   0.00000  Uiso   1.00
H7     H     0.82797   0.32049   0.13701   0.00000  Uiso   1.00
C3     C     0.65914   0.27731   0.27255   0.00000  Uiso   1.00
C4     C     0.53312   0.28665   0.24962   0.00000  Uiso   1.00
C5     C     0.48825   0.34860   0.06084   0.00000  Uiso   1.00
C6     C     0.56703   0.39893  -0.10205   0.00000  Uiso   1.00
H8     H     0.53130   0.43997  -0.25012   0.00000  Uiso   1.00
C7     C     0.77307   0.44658  -0.22332   0.00000  Uiso   1.00
O1     O     0.06826   0.40838   1.28466   0.00000  Uiso   1.00
H1     H     0.01829   0.41745   1.09042   0.00000  Uiso   1.00
H2     H     0.00747   0.41572   1.45580   0.00000  Uiso   1.00
loop_
_geom_bond_atom_site_label_1
_geom_bond_atom_site_label_2
_geom_bond_distance
_geom_bond_site_symmetry_2
_ccdc_geom_bond_type
O2     H3      0.986   .     S
O2     C3      1.351   .     S
O3     H4      0.987   .     S
O3     C4      1.358   .     S
O4     H5      0.978   .     S
O4     C5      1.349   .     S
O5     H6      0.978   .     S
O5     C7      1.348   .     S
O6     C7      1.253   .     D
C1     C2      1.418   .     A
C1     C6      1.417   .     A
C1     C7      1.423   .     S
C2     H7      1.020   .     S
C2     C3      1.404   .     A
C3     C4      1.410   .     A
C4     C5      1.410   .     A
C5     C6      1.401   .     A
C6     H8      1.014   .     S
O1     H1      0.986   .     S
O1     H2      0.984   .     S
