data_minimum_134_1.ref
_audit_creation_date              2010-08-20
_audit_creation_method            'Materials Studio'
_symmetry_space_group_name_H-M    'P21/C'
_symmetry_Int_Tables_number       14
_symmetry_cell_setting            monoclinic
loop_
_symmetry_equiv_pos_as_xyz
  x,y,z
  -x,y+1/2,-z+1/2
  -x,-y,-z
  x,-y+1/2,z+1/2
_cell_length_a                    7.9674
_cell_length_b                    9.3561
_cell_length_c                    13.7079
_cell_angle_alpha                 90.0000
_cell_angle_beta                  148.3344
_cell_angle_gamma                 90.0000
loop_
_atom_site_label
_atom_site_type_symbol
_atom_site_fract_x
_atom_site_fract_y
_atom_site_fract_z
_atom_site_U_iso_or_equiv
_atom_site_adp_type
_atom_site_occupancy
H1     H    -1.75575   0.72354  -0.72171   0.00000  Uiso   1.00
H2     H    -1.98455   0.66960  -0.99919   0.00000  Uiso   1.00
H3     H    -2.40792   0.82492  -1.27768   0.00000  Uiso   1.00
H4     H    -2.57522   0.04705  -1.27729   0.00000  Uiso   1.00
C5     C    -2.27501   0.02003  -1.00200   0.00000  Uiso   1.00
C6     C    -2.03813   0.91626  -0.84522   0.00000  Uiso   1.00
C7     C    -1.93404   0.79166  -0.84435   0.00000  Uiso   1.00
C8     C    -2.06421   0.76268  -0.99775   0.00000  Uiso   1.00
C9     C    -2.30151   0.85468  -1.15516   0.00000  Uiso   1.00
C10    C    -2.40007   0.97629  -1.15726   0.00000  Uiso   1.00
N11    N    -0.92005   0.94380  -0.69974   0.00000  Uiso   1.00
N12    N    -0.83057   0.97931  -0.57767   0.00000  Uiso   1.00
O13    O    -2.35346   0.13226  -0.99670   0.00000  Uiso   1.00
