data_dreidCmin\PNA21\-\1
_audit_creation_date              2010-08-17
_audit_creation_method            'Materials Studio'
_symmetry_space_group_name_H-M    'PNA21'
_symmetry_Int_Tables_number       33
_symmetry_cell_setting            orthorhombic
loop_
_symmetry_equiv_pos_as_xyz
  x,y,z
  -x,-y,z+1/2
  x+1/2,-y+1/2,z
  -x+1/2,y+1/2,z+1/2
_cell_length_a                    7.3984
_cell_length_b                    12.4606
_cell_length_c                    6.2458
_cell_angle_alpha                 90.0000
_cell_angle_beta                  90.0000
_cell_angle_gamma                 90.0000
loop_
_atom_site_label
_atom_site_type_symbol
_atom_site_fract_x
_atom_site_fract_y
_atom_site_fract_z
_atom_site_U_iso_or_equiv
_atom_site_adp_type
_atom_site_occupancy
C1     C     0.37594   0.89890   0.94397   0.00000  Uiso   1.00
C2     C     0.30340   0.86819   0.74506   0.00000  Uiso   1.00
C3     C     0.27453   0.75886   0.70073   0.00000  Uiso   1.00
C4     C     0.32000   0.67977   0.85229   0.00000  Uiso   1.00
C5     C     0.39477   0.71135   1.05099   0.00000  Uiso   1.00
C6     C     0.42251   0.82081   1.09594   0.00000  Uiso   1.00
O7     O     0.49018   0.85118   1.26930   0.00000  Uiso   1.00
N8     N     0.43808   0.64391   1.18957   0.00000  Uiso   1.00
N9     N     0.47921   0.58128   1.31861   0.00000  Uiso   1.00
H10    H     0.39672   0.97801   0.97819   0.00000  Uiso   1.00
H11    H     0.27206   0.92495   0.63256   0.00000  Uiso   1.00
H12    H     0.21960   0.73696   0.55694   0.00000  Uiso   1.00
H13    H     0.29747   0.60044   0.81687   0.00000  Uiso   1.00
loop_
_geom_bond_atom_site_label_1
_geom_bond_atom_site_label_2
_geom_bond_distance
_geom_bond_site_symmetry_2
_ccdc_geom_bond_type
C1     C2      1.406   .     D
C1     C6      1.402   .     S
C1     H10     1.020   .     S
C2     C3      1.406   .     S
C2     H11     1.024   .     S
C3     C4      1.407   .     D
C3     H12     1.023   .     S
C4     C5      1.415   .     S
C4     H13     1.027   .     S
C5     C6      1.408   .     S
C5     N8      1.248   .     D
C6     O7      1.251   .     D
N8     N9      1.162   .     D
