data_XVI-7864-1265668361.new
_audit_creation_date              2010-08-20
_audit_creation_method            'Materials Studio'
_symmetry_space_group_name_H-M    'P21'
_symmetry_Int_Tables_number       4
_symmetry_cell_setting            monoclinic
loop_
_symmetry_equiv_pos_as_xyz
  x,y,z
  -x,y+1/2,-z
_cell_length_a                    3.7953
_cell_length_b                    8.7588
_cell_length_c                    8.0740
_cell_angle_alpha                 90.0000
_cell_angle_beta                  91.9978
_cell_angle_gamma                 90.0000
loop_
_atom_site_label
_atom_site_type_symbol
_atom_site_fract_x
_atom_site_fract_y
_atom_site_fract_z
_atom_site_U_iso_or_equiv
_atom_site_adp_type
_atom_site_occupancy
H1     H     0.96795   0.43443   0.67385   0.00000  Uiso   1.00
H2     H     0.46681   0.83838   0.48379   0.00000  Uiso   1.00
H3     H     0.14427   0.59385   0.43918   0.00000  Uiso   1.00
H4     H     0.62130   0.92496   0.77479   0.00000  Uiso   1.00
C5     C     0.37991   0.72861   0.88240   0.00000  Uiso   1.00
C6     C     0.11230   0.54039   0.69515   0.00000  Uiso   1.00
C7     C     0.39071   0.77122   0.58996   0.00000  Uiso   1.00
C8     C     0.21026   0.63086   0.56562   0.00000  Uiso   1.00
C9     C     0.47689   0.82007   0.74743   0.00000  Uiso   1.00
C10    C     0.17973   0.58286   0.86516   0.00000  Uiso   1.00
N11    N     0.45633   0.76299   0.03934   0.00000  Uiso   1.00
N12    N     0.46559   0.74845   0.18461   0.00000  Uiso   1.00
O13    O     0.08403   0.50752   0.98820   0.00000  Uiso   1.00

