data_Day.XXI.3
# this entry represents Day's submission for compound XXI Form 4, choice 3
# Comment: 3rd lowest energy structure
# Elatt = -187.56 kJ/mol
# empirically derived model potential, distributed multipole electrostatics, DFT molecular energies
_symmetry_cell_setting           monoclinic
_symmetry_space_group_name_H-M   'P 21/c'
_symmetry_Int_Tables_number      14
loop_
_symmetry_equiv_pos_site_id
_symmetry_equiv_pos_as_xyz
1 x,y,z
2 -x,1/2+y,1/2-z
3 -x,-y,-z
4 x,1/2-y,1/2+z
_cell_length_a                   4.5279
_cell_length_b                   42.9208
_cell_length_c                   7.9205
_cell_angle_alpha                90
_cell_angle_beta                 103.147
_cell_angle_gamma                90
_cell_volume                     1498.93
loop_
_atom_site_label
_atom_site_type_symbol
_atom_site_fract_x
_atom_site_fract_y
_atom_site_fract_z
O1 O 1.24582 -0.08499 -1.11754
O2 O 0.98623 -0.03986 -1.16069
H3 H 1.09659 -0.03928 -1.25243
O3 O 0.50766 -0.02992 -0.65864
H4 H 0.44655 -0.03398 -0.55148
O4 O 0.65092 -0.08322 -0.46374
H5 H 0.69731 -0.10251 -0.40028
O5 O 0.98243 -0.13007 -0.57893
H6 H 1.11565 -0.1438 -0.62363
C1 C 0.94219 -0.07249 -0.92185
C2 C 0.77617 -0.04862 -0.86633
H1 H 0.72386 -0.02752 -0.94273
C3 C 0.6791 -0.05223 -0.71235
C4 C 0.74611 -0.0796 -0.6137
C5 C 0.91482 -0.10326 -0.67068
C6 C 1.01202 -0.09973 -0.82451
H2 H 1.14205 -0.1178 -0.87066
C7 C 1.06775 -0.06706 -1.07501
O6 O 0.35267 -0.1705 0.31218
O7 O 0.58068 -0.21742 0.33984
H9 H 0.47731 -0.21775 0.4347
O8 O 1.05419 -0.22927 -0.15946
H10 H 1.09877 -0.246 -0.07598
O9 O 0.9274 -0.17536 -0.35345
H11 H 0.87535 -0.15604 -0.41576
O10 O 0.59475 -0.12852 -0.243
H12 H 0.4642 -0.11467 -0.19692
C8 C 0.63408 -0.18564 0.10523
C9 C 0.796 -0.20974 0.04864
H7 H 0.84758 -0.23083 0.12492
C10 C 0.88961 -0.20632 -0.10651
C11 C 0.82345 -0.17897 -0.20525
C12 C 0.65887 -0.15506 -0.14715
C13 C 0.56489 -0.15836 0.00781
H8 H 0.43817 -0.14013 0.05497
C14 C 0.51322 -0.18934 0.2613
O11 O 0.24851 -0.22601 -0.45471
H13 H 0.32212 -0.23205 -0.33516
H14 H 0.11203 -0.20899 -0.44874
O12 O 0.35912 -0.03026 -0.35967
H15 H 0.53345 -0.04136 -0.29445
H16 H 0.40739 -0.00867 -0.3323
#END
